[TITLE]
New Scenario

[PATTERNS]
;ID                             	Multipliers
;ID                             	Multipliers
ZMC7                           	29.0      	31.0      	27.0      	27.0      	27.0      	25.0      
ZMC7                           	31.0      	29.0      	20.0      	14.0      	13.0      	14.0      
ZMC7                           	12.0      	9.0       	9.0       	14.0      	10.0      	9.0       
ZMC7                           	8.0       	10.0      	12.0      	16.0      	22.0      	28.0      
;ID                             	Multipliers
ZMC8                           	259.0     	278.0     	245.0     	244.0     	239.0     	225.0     
ZMC8                           	275.0     	265.0     	176.0     	125.0     	116.0     	127.0     
ZMC8                           	112.0     	78.0      	82.0      	128.0     	89.0      	77.0      
ZMC8                           	73.0      	94.0      	107.0     	145.0     	197.0     	253.0     
;ID                             	Multipliers
ZMC9                           	28.0      	31.0      	49.0      	42.0      	38.0      	38.0      
ZMC9                           	33.0      	39.0      	29.0      	26.0      	24.0      	24.0      
ZMC9                           	21.0      	19.0      	21.0      	19.0      	18.0      	18.0      
ZMC9                           	20.0      	20.0      	21.0      	23.0      	23.0      	31.0      
[JUNCTIONS]
;ID                            	Elev 	Demand    	Pattern                        
J100	28.47805786			;			
J1000	32.89411545			;			
J1001	32.89411545			;			
J1004	45.12267303			;			
J1005	32.47925186			;			
J1006	32.47925186			;			
J101	32.50737762	0.0003	ZMC8	;	156_VDL 152_VDL		
J1010	40			;			
J1011	40			;			
J1012	40			;			
J1013	40			;			
J1017	42.37656021			;			
J1019	42.37656021			;			
J102	32.50737762	0.0005	ZMC8	;	153_VDL 154_VDL 155_VDL		
J1021	40.03065109			;			
J1022	40.03065109			;			
J1024	42.46793365			;			
J1025	42.71959305			;			
J1026	42.71959305			;			
J1027	42.71959305			;			
J1028	42.07633591			;			
J1029	42.07633591			;			
J1031	40.02007675			;			
J1032	40.02007675			;			
J1034	40.02007675			;			
J1036	42.87987137			;			
J1038	42.87987137			;			
J1042	34.37887955			;			
J1043	35.54587173			;			
J1044	35.54587173			;			
J1045	35.54587173			;			
J1046	45.05315018			;			
J1048	45.05315018			;			
J1049	45.1291275	0.0036	ZMC8	;	PRVDL191		
J105	38.7543602	0.0518	ZMC7	;	1089_VDL 1099_VDL 1108_VDL		
J1050	21.91332817	0.0006	ZMC8	;	Som_dos_Pinheiros		
J1051	40			;			
J1056	39.6055069			;			
J1057	40			;			
J1058	40			;			
J1059	43.57948303			;			
J106	33.65755844	0.0005	ZMC8	;	147_VDL 150_VDL 149_VDL 148_VDL		
J1060	43.57948303			;			
J1063	43.57948303			;			
J1064	43.57948303	0.0000	ZMC8	;	PRVDL199		
J107	28.95829201	0.0458	ZMC7	;	1103_VDL 1101_VDL 1102_VDL		
J108	35.71187973	0.0007	ZMC8	;	1038_VDL		
J1081	40			;			
J1085	40			;			
J109	40.26479721	0.0335	ZMC7	;	1087_VDL 1085_VDL 1086_VDL		
J1092	40			;			
J1094	43.11621094			;			
J1095	40			;			
J1096	40			;			
J1097	40			;			
J1098	40			;			
J1099	40			;			
J11	13.91197491	0.0518	ZMC7	;	1158_VDL 1157_VDL		
J110	39.81750107	0.0014	ZMC8	;	1040_VDL		
J1100	43.11621094			;			
J1101	43.11621094			;			
J1102	43.11621094			;			
J1107	40			;			
J1108	40			;			
J1109	40			;			
J111	36.39546585			;			
J1110	40			;			
J1117	30.2126236			;			
J1118	39.5495491	0.0041	ZMC8	;	13_QUA_JG 11_QUA_JG 34_QUA_JG 10_QUA_JG Lavandaria_(Fr._C) 13_QUA J_Golfe_Fracao_B 12_QUA 30_QUA_B3 29_QUA_B3 25_QUA_B3 26_QUA_B3 28_QUA_B3 27_QUA_B3 15_QUA_B2 21_QUA_B3 23_QUA_B3		
J1119	44.32558441	0.0045	ZMC8	;	12_QUA_JG 9_QUA_JG 24_QUA_JG 25_QUA_JG 41_QUA_JG 26_QUA_JG 27_QUA_JG 42_QUA_JG 28_QUA_JG 29_QUA_JG 30_QUA_JG 43_QUA_JG 45_QUA_JG 44_QUA_JG 41_QUA 43_QUA 42_QUA		
J112	18.79626083	0.0108	ZMC9	;	PRVDL009 006_VDL 014_VDL 005_VDL 013_VDL		
J1120	41.98685455	0.0053	ZMC8	;	9_QUA 20_QUA_B2 7_QUA 19_QUA_B2 10_QUA_B1 8_QUA 13_QUA_B2 18_QUA_B2 16_QUA_B2 17_QUA_B2		
J1121	44.28266525	0.0012	ZMC8	;	8_QUA_GJ 12_QUA_GJ 9_QUA_GJ 10_QUA_GJ 11_QUA_GJ 13_QUA_GJ 15_QUA_GJ 14_QUA_GJ 5_QUA_JG 4_QUA_JG 16_QUA_GJ 19_QUA_GJ 3_QUA_JG 20_QUA_GJ 2_QUA_JG 31_QUA_JG 1_QUA_JG		
J1122	40.51820374	0.0090	ZMC8	;	573_VDL 574_VDL 571_VDL 575_VDL 570_VDL		
J1123	40.52416611	0.0078	ZMC8	;	576_VDL 564_VDL 565_VDL 569_VDL 568_VDL 566_VDL 578_VDL 577_VDL 567_VDL		
J1124	40.81431198	0.0016	ZMC8	;	508_VDL 509_VDL		
J1125	39.44477844	0.0093	ZMC8	;	552_VDL 551_VDL 545_VDL 546_VDL 549_VDL 550_VDL 548_VDL 547_VDL		
J1126	39.04069901	0.0029	ZMC8	;	135_VDL 146_VDL PRVDL014 136_VDL 139_VDL 134_VDL 137_VDL 138_VDL		
J1127	34.88255692	0.0003	ZMC8	;	162_VDL 164_VDL 163_VDL		
J1128	23.13192368	0.0092	ZMC8	;	1056_VDL 1057_VDL 1055_VDL 1058_VDL 1054_VDL 1060_VDL 1059_VDL		
J1129	9.986895561	0.0278	ZMC9	;	421_VDL 422_VDL 420_VDL PRVDL033		
J113	40	0.0036	ZMC8	;	1042B_VDL 145_VDL 144_VDL 142_VDL 143_VDL		
J1130	24.26281548	0.0053	ZMC8	;	483_VDL 484_VDL 488/9_VDL 485_VDL 474_VDL 486/7_VDL		
J1131	30	0.0040	ZMC8	;	473_VDL 471_VDL 464_VDL		
J1132	18.79320908	0.0054	ZMC8	;	621_VDL 624_VDL 625_VDL 626_VDL		
J1133	10	0.0582	ZMC9	;	497_VDL PRVDL039 498_VDL		
J1134	15.82678604	0.0107	ZMC9	;	382_VDL		
J1135	19.15390968	0.0327	ZMC9	;	404_VDL 405_VDL 407_VDL 406/388_VDL		
J1136	20	0.0066	ZMC8	;	627_VDL 628_VDL 630_VDL		
J1137	26.82603264	0.0063	ZMC8	;	482_VDL 465_VDL 481_VDL 476_VDL 467_VDL 480_VDL 479_VDL 469_VDL 477/8_VDL		
J1138	31.37014389	0.0031	ZMC8	;	965_VDL 970_VDL 968_VDL 970A_VDL PRVDL122 PRVDL123 969_VDL		
J1139	33.2914505	0.0031	ZMC8	;	964_VDL 960_VDL PRVDL121 961_VDL 963_VDL 962_VDL		
J114	28.60969162	0.0551	ZMC7	;	PRVDL206 1205_TRF PRVDL205 1204_TRF 1203_TRF 1202_TRF 1201_TRF		
J1140	27.77501678	0.0113	ZMC8	;	Academia_Tenis Bancadas_Tenis 966_VDL 967_VDL Memorias_da_China		
J1141	10.10458851			;			
J1142	9.180157661			;			
J1143	18.44303322			;			
J1144	27.13449287	0.0014	ZMC8	;	1014_VDL 1015_VDL		
J1145	27.02332497	0.0041	ZMC8	;	1016_VDL 1020/1_VDL 1022_VDL		
J1146	37.30834198	0.0072	ZMC7	;	1162_VDL 1167_VDL 1163_VDL 1166_VDL 1165_VDL		
J1147	20.04309845	0.0235	ZMC7	;	1156_VDL 1159_VDL 1155_VDL 1154_VDL		
J1148	29.21507645	0.0009	ZMC8	;	019_VDL 018_VDL		
J1149	30	0.0006	ZMC8	;	019A_VDL		
J115	25.55404091	0.0050	ZMC9	;	17_VDL 8_VDL 9_VDL 15_VDL 16_VDL		
J1150	27.54614639	0.0003	ZMC9	;	30_VDL 29_VDL		
J1151	27.47869301	0.0004	ZMC9	;	20_VDL		
J1152	26.54420471	0.0263	ZMC9	;	408_VDL 403_VDL		
J1153	30	0.0091	ZMC8	;	402_VDL 400_VDL 401_VDL 397_VDL 396_VDL		
J1154	24.69860458	0.0029	ZMC8	;	395_VDL		
J1156	25.08642769			;			
J1158	26.65992737			;			
J1159	38.7101059	0.0040	ZMC8	;	PRVDL005		
J116	36.39546585			;			
J1160	38.62974167	0.0010	ZMC8	;	518_VDL 503_VDL		
J1161	38.58042145	0.0000	ZMC8	;	504_VDL		
J1162	38.53392792	0.0063	ZMC8	;	505/17_VDL		
J1163	38.92725754	0.0045	ZMC8	;	507_VDL 506_VDL		
J1164	46.62948608	0.0015	ZMC8	;	11_QUA Casa_Lavanda		
J1165	46.69065857	0.0012	ZMC8	;	10_QUA		
J1166	45.44901276	0.0018	ZMC8	;	Viveiro_Plantas_VDL		
J1167	25.61045074	0.0086	ZMC8	;	599_VDL 612_VDL 611_VDL 610_VDL 598_VDL		
J1168	19.4950161	0.0087	ZMC8	;	PRVDL158 646_VDL 647_VDL		
J1169	37.91991043	0.0137	ZMC8	;	589_VDL 592/3_VDL 591_VDL 590_VDL 587_VDL 588_VDL		
J117	37.51541138	0.0040	ZMC8	;	PRVDL010 1039_VDL		
J119	32.86210251	0.0019	ZMC8	;	024_VDL 025_VDL 025A_VDL 024A_VDL		
J12	17.29390526			;			
J120	35.81235123	0.0006	ZMC8	;	151_VDL 117_VDL 118_VDL 120_VDL 119_VDL		
J121	37.30097198			;			
J122	40.03393936			;			
J123	22.05142403	0.0090	ZMC9	;	6_VDL PRVDL019 10_VDL		
J124	35.28002548	0.0025	ZMC8	;	026_VDL 116_VDL		
J125	35.28002548	0.0025	ZMC8	;	114_VDL 115_VDL PRVDL015		
J127	36.80465698	0.0005	ZMC8	;	133_VDL 130_VDL 132_VDL 131_VDL		
J129	37.18681335			;			
J130	33.09659195	0.0048	ZMC8	;	63_VDL 64_VDL PRVDL018 65_VDL		
J131	37.94651031	0.0029	ZMC8	;	1010_VDL 1011_VDL		
J132	31.20223999	0.0013	ZMC8	;	61_VDL 023A_VDL 022A_VDL 46_VDL 45_VDL 44_VDL		
J133	19.17752266	0.0129	ZMC9	;	001_VDL 002_VDL 016_VDL 015_VDL 004_VDL 003_VDL		
J134	37.63344193			;			
J135	36.12239075	0.0001	ZMC8	;	121_VDL 122_VDL		
J137	31.84045792	0.0062	ZMC7	;	1168_VDL		
J138	36.12239075	0.0036	ZMC8	;	PRVDL016		
J139	26.03992844	0.0080	ZMC9	;	12_VDL 11A_VDL PRVDL020 11B_VDL		
J141	33.28259659	0.0051	ZMC8	;	1078_VDL		
J144	34.66495514	0.0003	ZMC8	;	111_VDL 112_VDL 113_VDL 68_VDL 67_VDL		
J145	19.97637749			;			
J146	26.6914978	0.0024	ZMC9	;	66_VDL 18_VDL 19_VDL 22_VDL 21_VDL		
J147	36.4360466	0.0001	ZMC8	;	123_VDL		
J148	37.41823578			;			
J149	40.37737274	0.0002	ZMC8	;	141_VDL		
J15	16.02973557	0.0129	ZMC7	;	1243_TRF 1244_TRF 1245_TRF 1246_TRF 1247_TRF 1248_TRF		
J150	19.97637749			;			
J151	42.81465149			;			
J152	40.17358398	0.0004	ZMC8	;	140_VDL		
J153	38.21159363	0.0001	ZMC8	;	129_VDL		
J154	41.36099243	0.0600	ZMC7	;	1081_VDL 1082_VDL 1146_VDL		
J156	29.68234634	0.0061	ZMC9	;	32_VDL 33_VDL 43_VDL		
J157	26.56493568	0.0007	ZMC9	;	27_VDL 26_VDL		
J158	21.29257393	0.0033	ZMC9	;	PRVDL022 3_VDL 2_VDL 1_VDL		
J159	40.29857635			;			
J16	16.90124321	0.0050	ZMC7	;	1231_TRF 1232_TRF		
J160	28.43103981	0.0011	ZMC9	;	31_VDL 35_VDL 34_VDL		
J161	36.42129135	0.0001	ZMC8	;	124_VDL		
J162	36.21865463	0.0003	ZMC8	;	110_VDL 125_VDL 109_VDL		
J163	23.16748619	0.0014	ZMC9	;	5_VDL 7_VDL		
J164	20.61973572			;			
J165	37.94641113	0.0004	ZMC8	;	127_VDL 128_VDL		
J166	24.50730133	0.0009	ZMC9	;	23_VDL 14_VDL		
J167	41.25999069	0.0409	ZMC7	;	1092_VDL 1090_VDL 1091_VDL		
J168	40.16525269	0.0023	ZMC8	;	312/3_VDL 357_VDL		
J169	38.876091	0.0391	ZMC7	;	1098_VDL 1093_VDL 1097_VDL		
J170	21.06462479	0.0197	ZMC9	;	Lobito_Kids_Club		
J171	24.42455864			;			
J172	26.08356285	0.0012	ZMC9	;	28_VDL		
J173	30.40245247			;			
J174	20.86224937			;			
J175	36.04575729	0.0002	ZMC8	;	108_VDL 126_VDL		
J176	28.79298973	0.0013	ZMC9	;	41_VDL 49_VDL 54_VDL		
J178	26.60924721	0.0013	ZMC9	;	37_VDL 36_VDL		
J179	39.82383728	0.0139	ZMC8	;	358_VDL 355_VDL 356_VDL 360_VDL 359_VDL 362_VDL		
J18	24.24285889	0.0011	ZMC8	;	1073_VDL		
J181	30.63807106			;			
J182	27.89259148	0.0017	ZMC9	;	39_VDL 40_VDL		
J183	21.42030334	0.0113	ZMC9	;	PRVDL024 24_VDL 25_VDL		
J184	28.27055359	0.0024	ZMC9	;	56_VDL 55_VDL		
J185	27.35418129	0.0015	ZMC9	;	51_VDL 50_VDL		
J186	22.91528511			;			
J187	7.130795002	0.0208	ZMC9	;	Restaurante_Brezze Chuveiros_Praia PRVDL029		
J188	34.327034	0.0003	ZMC8	;	83_VDL 106_VDL 107_VDL		
J190	36.63249588	0.0001	ZMC8	;	100_VDL 101_VDL 102_VDL		
J191	32.26732635	0.0007	ZMC8	;	69_VDL 81_VDL 71_VDL 82_VDL		
J192	38.06010437	0.0022	ZMC8	;	103_VDL 319_VDL 320_VDL 321_VDL		
J193	30.76832771	0.0009	ZMC8	;	60_VDL 62_VDL 59_VDL		
J194	30.76832771	0.0002	ZMC8	;	73_VDL 72_VDL PRVDL017		
J195	10.23920631	0.1257	ZMC9	;	Piscinas Teahouse_Oriental Boutique_Dunas PRVDL028 Restaurante_Montys		
J196	33.27727127	0.0010	ZMC8	;	84_VDL 80_VDL 85_VDL 86_VDL PRVDL013		
J197	11.51800919	0.0050	ZMC9	;	PRVDL025		
J199	39.26818848	0.0214	ZMC8	;	Spa_VDL Piscina_do_Spa_VDL 361_VDL 617_VDL 616_VDL		
J2	10.73060608	0.0063	ZMC7	;	1128_VDL		
J200	30.40888977			;			
J201	24.6547184	0.0007	ZMC9	;	38_VDL		
J202	31.97145844	0.0525	ZMC7	;	1094_VDL 1096_VDL 1095_VDL		
J203	28.75688553	0.0056	ZMC8	;	58_VDL PRVDL021		
J205	32.38366318	0.0005	ZMC8	;	79_VDL 77_VDL 78_VDL 88_VDL 87_VDL		
J207	34.80475998	0.0006	ZMC8	;	93_VDL 105_VDL 94_VDL 92_VDL 104_VDL 98_VDL 99_VDL		
J208	30.784132	0.0002	ZMC8	;	76_VDL 74_VDL 75_VDL		
J211	36.61554337			;			
J212	29.13322449			;			
J215	26.44433403	0.0013	ZMC9	;	52_VDL		
J216	27.08275223			;			
J218	15.35593033	0.0134	ZMC9	;	Mini_Golf		
J219	39.70292664	0.0043	ZMC8	;	354_VDL 314_VDL		
J220	45.48649597			;			
J221	45.48649597	0.0018	ZMC8	;	PRVDL178		
J222	34.45186234	0.0004	ZMC8	;	89_VDL 96_VDL 90_VDL 91_VDL 97_VDL		
J225	15.02331448	0.0000	ZMC9	;	PRVDL027		
J227	28.34655952			;			
J228	19.97006798	0.0000	ZMC9	;	PRVDL026		
J229	28.34655952			;			
J230	28.82292557			;			
J234	9.133234024	0.0633	ZMC9	;	PLATAFORMA_PRAIA Sandbanks Creperie PRVDL030 Gecko Praca_VDL Beach_Bar		
J236	35.31584167	0.0012	ZMC8	;	95_VDL 318_VDL 317_VDL		
J237	10.25835323	0.0311	ZMC9	;	Escritorio_Shelsian Restaurante_Amore Rest_Cantina_Lobo		
J239	37.87092972	0.0016	ZMC8	;	316_VDL 315_VDL		
J240	30.25231934	0.2335	ZMC9	;	Hotel_D._Filipa		
J241	34.48946762	0.0058	ZMC8	;	303_VDL 304_VDL		
J242	41.14123917	0.0035	ZMC8	;	351_VDL 1002_VDL 1003_VDL 1001_VDL		
J243	29.0154171			;			
J244	41.36788559	0.0026	ZMC8	;	Restaurante_Spikes Auditorio_VDL		
J247	45.4409523			;			
J250	10			;			
J251	10	0.0236	ZMC9	;	431_VDL PRVDL032 430_VDL 429_VDL		
J253	25.91059494			;			
J254	36.18782425	0.0084	ZMC8	;	305_VDL 307_VDL 306_VDL		
J255	41.32447433			;			
J256	41.01618195	0.0007	ZMC8	;	VDL_Shopping		
J257	45.30688095			;			
J258	6.982899189	0.0236	ZMC9	;	423_VDL 424_VDL 425_VDL 426_VDL 427_VDL 428_VDL		
J259	45.30688095	0.0011	ZMC8	;	PRVDL175		
J26	17.93164444	0.0356	ZMC7	;	1241_TRF 1230_TRF 1234_TRF 1229_TRF 1225_TRF 1240_TRF 1235_TRF PRVDL208 1236_TRF 1239_TRF 1228_TRF 1226_TRF 1237_TRF 1238_TRF 1227_TRF		
J262	33.60600662			;			
J267	35.88622284			;			
J268	40.51236725	0.0061	ZMC8	;	502_VDL 501_VDL 311_VDL		
J270	27.78391266	0.0023	ZMC8	;	196_VDL PRVDL177 197_VDL 199_VDL 198_VDL		
J271	41.0593071	0.0091	ZMC8	;	308_VDL 352_VDL 309_VDL 353_VDL PRVDL006		
J272	37.53430176	0.0022	ZMC8	;	202_VDL PRVDL170		
J273	36.45464325	0.0022	ZMC8	;	1006_VDL 206/7_VDL		
J275	7.102784157	0.0086	ZMC9	;	432_VDL 433_VDL 434_VDL		
J277	41.77944183			;			
J279	37.86004639			;			
J28	20.10536003	0.0097	ZMC8	;	1072_VDL 1071_VDL 1070_VDL 1069_VDL 1018_VDL		
J282	41.77944183	0.0093	ZMC8	;	Oficina_VDL PRVDL171 Administracao_VDL 212_VDL 210_VDL PRVDL173 211_VDL		
J283	40.84597015	0.0005	ZMC8	;	310_VDL		
J287	39.82630157	0.0018	ZMC8	;	Governantas_VDL PRVDL212		
J293	7.150640488	0.0206	ZMC9	;	436_VDL 435_VDL PRVDL034		
J296	38.59047699			;			
J297	38.59047699			;			
J298	9.192276955	0.0104	ZMC9	;	439_VDL 437_VDL 438_VDL		
J299	40.02119064			;			
J300	40.02119064			;			
J301	8.898928642			;			
J302	11.68138981	0.0037	ZMC9	;	440_VDL		
J303	37.54709244	0.0075	ZMC8	;	200/1_VDL 203_VDL 208/9_VDL PRVDL169 205_VDL		
J304	12.49512005	0.0051	ZMC9	;	441_VDL		
J305	34.43797684	0.0116	ZMC8	;	173/3A_VDL PRVDL167 185_VDL 184_VDL PRVDL166 180_VDL 174_VDL 176_VDL 177_VDL 182/3_VDL 178_VDL 179_VDL PRVDL164 175/6_VDL 181_VDL 176A_VDL		
J306	13.62298679	0.0074	ZMC9	;	442_VDL 443_VDL		
J307	14.60277176	0.0058	ZMC9	;	445_VDL 444_VDL		
J309	30.72969246			;			
J31	26.92234993			;			
J310	40.50515366			;			
J311	13.08380699			;			
J312	15.99271774	0.0041	ZMC9	;	446_VDL 447_VDL		
J313	14.38028908			;			
J315	17.94097519	0.0092	ZMC9	;	448_VDL		
J317	18.79686737			;			
J326	33.506073	0.0052	ZMC8	;	412_VDL 398_VDL 414_VDL 413_VDL 399_VDL		
J329	37.01777649			;			
J33	25.80233955			;			
J331	31.74524689	0.0043	ZMC8	;	4_QUA 2_QUA 1_QUA		
J332	31.74524689	0.0033	ZMC8	;	195_VDL 194_VDL 193_VDL 191_VDL 192_VDL		
J334	23.77254486	0.0043	ZMC8	;	490_VDL 491_VDL 493_VDL 492_VDL		
J336	12.38318348	0.0246	ZMC9	;	386_VDL 385_VDL 387_VDL		
J340	32.62655258	0.0079	ZMC8	;	519_VDL 521_VDL 522_VDL 523_VDL		
J343	29.49068451	0.0040	ZMC8	;	527_VDL 524/5_VDL 526_VDL Central_de_Seguranca PRVDL161		
J344	14.65461636	0.0522	ZMC9	;	384_VDL 389_VDL 383_VDL		
J345	31.44434166	0.0063	ZMC8	;	20_QUA 19_QUA 190_VDL 30_QUA 18_QUA 26_QUA PRQUA003		
J346	37.2802887	0.0057	ZMC8	;	15/14_QUA Tenis_QUA J_G_Bar 5_QUA 8_QUA_B1 6_QUA_B1 7_QUA_B1 PRQUA004 3_QUA_B1 4_QUA_B1 5_QUA_B1		
J347	38.73703003	0.0004	ZMC8	;	9_QUA_B1 2_QUA_B1 11_QUA_B2 1_QUA_B1		
J348	16.8153019	0.0023	ZMC8	;	620_VDL 619_VDL 618_VDL		
J349	27.66049767	0.0009	ZMC8	;	470/94_VDL 472_VDL 475_VDL		
J351	23.40888596	0.0033	ZMC8	;	PRVDL162 392/3/4_VDL		
J353	38.61081314	0.0047	ZMC8	;	530_VDL 529_VDL 532_VDL 533_VDL		
J356	36.95834732	0.0017	ZMC8	;	531_VDL PRVDL160		
J357	36.52262497	0.0078	ZMC8	;	PRVDL165 186_VDL 171/2_VDL 170_VDL 187_VDL 188_VDL 169_VDL 189_VDL PRVDL163 168_VDL PRVDL168 167_VDL		
J358	36.55767059	0.0013	ZMC8	;	528_VDL		
J359	39.58224106	0.0169	ZMC8	;	538/9_VDL 543_VDL 536_VDL 513_VDL 514_VDL 537_VDL 540_VDL 516_VDL 515_VDL 542_VDL		
J36	24.7868042	0.0048	ZMC8	;	1017_VDL 1019_VDL		
J362	34.36418915	0.0065	ZMC8	;	374_VDL 370_VDL 373_VDL 372_VDL		
J363	37.65255356	0.0069	ZMC8	;	29_QUA 35_QUA 34_QUA 27_QUA 28_QUA		
J365	41.45389557	0.0082	ZMC8	;	17_QUA 21_QUA 16_QUA 22_QUA 45_QUA 46_QUA		
J366	40.34479141	0.0036	ZMC8	;	535_VDL 534_VDL PRVDL159		
J367	41.59235001	0.0015	ZMC8	;	35_QUA_JG 15_QUA_JG 14_QUA_JG 22_QUA_JG 36_QUA_JG 23_QUA_JG 40_QUA_JG 17_QUA_JG 16_QUA_JG 20_QUA_JG 37_QUA_JG 39_QUA_JG 21_QUA_JG 18_QUA_JG 19_QUA_JG 38_QUA_JG PRQUA001		
J368	42.39445877	0.0140	ZMC8	;	6_QUA_GJ 7_QUA_GJ 4_QUA_GJ 7_QUA_JG 3_QUA_GJ 2_QUA_GJ 8_QUA_JG 6_QUA_JG 5_QUA_GJ Condominio_JG PRQUA002 33_QUA_JG 32_QUA_JG		
J370	30.59033585	0.0010	ZMC8	;	459_VDL 463_VDL 461_VDL		
J371	15.31520844			;			
J373	14.04430771			;			
J374	21.49989891	0.0042	ZMC8	;	375_VDL 379/80_VDL 376_VDL 377/8_VDL		
J375	38.0108223	0.0055	ZMC8	;	31_QUA 36_QUA 32_QUA 23_QUA 37_QUA		
J376	40.67437744	0.0053	ZMC8	;	47_QUA Restaurante_Paixa 24_QUA 25_QUA		
J379	37.47036362			;			
J38	25.74571037	0.0295	ZMC7	;	1129_VDL 1161_VDL 1130_VDL 1131_VDL		
J380	37.47036362	0.0016	ZMC8	;	38_QUA		
J381	43.30683517	0.0030	ZMC8	;	510_VDL 511_VDL		
J383	45.95026016	0.0039	ZMC8	;	17_QUA_GJ 18_QUA_GJ 44_QUA		
J385	29.69800186	0.0028	ZMC8	;	457_VDL 453/5_VDL 454/6/8/62/623_VDL		
J386	40.24309921	0.0132	ZMC8	;	553_VDL 554_VDL 555_VDL 556_VDL 557_VDL 544_VDL 512_VDL		
J387	41.58292389	0.0043	ZMC8	;	40_QUA 39_QUA		
J388	29.10565186	0.0121	ZMC8	;	581_VDL 615_VDL 602_VDL 579/80_VDL 606_VDL 605_VDL 603_VDL 604_VDL		
J390	41.58452225	0.0030	ZMC8	;	563_VDL PRVDL004		
J393	27.7759304	0.0034	ZMC8	;	449_VDL 450_VDL 451_VDL		
J395	46.55376816	0.0175	ZMC8	;	Condominio_P._Benta 1_QUA_GJ		
J397	27.13288689	0.0073	ZMC8	;	784_VDL PRVDL085 780_VDL 783_VDL 782_VDL 781_VDL		
J399	29.36502457	0.0052	ZMC8	;	629_VDL 631_VDL		
J4	15.4437809			;			
J40	17.56970978	0.0166	ZMC7	;	1233_TRF 1224_TRF 1222/3_TRF PRVDL204 PRVDL207		
J400	29.29312515	0.0005	ZMC8	;	758_VDL 757_VDL 756_VDL PRVDL082		
J401	30.17172432	0.0037	ZMC8	;	763_VDL 764_VDL PRVDL084		
J402	30.57551193	0.0035	ZMC8	;	PRVDL083 760_VDL 761_VDL 762_VDL		
J403	37.41648483	0.0036	ZMC8	;	558_VDL 562_VDL 559_VDL		
J404	28.14668274	0.0031	ZMC8	;	785_VDL		
J405	23.11651039	0.0006	ZMC8	;	WC_Golf_16 788_VDL 789_VDL 790_VDL PRVDL087		
J406	30.34239006	0.0006	ZMC8	;	765_VDL		
J407	29.96479225			;			
J408	28.59052849	0.0038	ZMC8	;	751_VDL 750_VDL PRVDL081		
J409	32.27957153	0.0111	ZMC8	;	582_VDL 583_VDL 607_VDL 608/9_VDL 586_VDL 584_VDL 594/5_VDL 585_VDL		
J41	18.26761436	0.0057	ZMC8	;	1074_VDL 1075_VDL 1077_VDL 1076_VDL		
J410	35.87132263	0.0036	ZMC8	;	561_VDL 560_VDL		
J411	28.91640282	0.0032	ZMC8	;	PRVDL044 738_VDL 739_VDL PRVDL078		
J412	30.11906242	0.0018	ZMC8	;	PRVDL042 728B_VDL PRVDL043 728A_VDL		
J413	30.55243111			;			
J414	30.55243111	0.0005	ZMC8	;	775_VDL 774_VDL		
J415	31.02236176	0.0037	ZMC8	;	759_VDL 773_VDL PRVDL089		
J416	29.4245224			;			
J417	20.27250862	0.0016	ZMC8	;	786_VDL PRVDL086 787_VDL		
J419	38.86994934			;			
J42	30.12158966	0.0032	ZMC8	;	1030_VDL 1031_VDL		
J420	45.86796951			;			
J421	18.67188644	0.0082	ZMC8	;	600_VDL 614_VDL 601_VDL 613_VDL		
J422	30	0.0002	ZMC8	;	752_VDL 753_VDL		
J423	31.4922924	0.0002	ZMC8	;	772_VDL		
J424	29.60662079	0.0002	ZMC8	;	742_VDL		
J425	29.10280037	0.0003	ZMC8	;	741_VDL 740_VDL		
J426	30			;			
J427	29.82881927	0.0019	ZMC8	;	748_VDL 749_VDL PRVDL080		
J428	30.53778076	0.0022	ZMC8	;	727/8_VDL PRVDL075 733_VDL		
J429	29.48846817			;			
J431	31.63891411	0.0002	ZMC8	;	771_VDL		
J432	31.37845421	0.0022	ZMC8	;	770_VDL 768_VDL 769_VDL PRVDL088		
J433	30.91689491	0.0002	ZMC8	;	754_VDL		
J434	29.17280006	0.0003	ZMC8	;	747_VDL PRVDL079		
J435	30.01943207			;			
J437	30.91366005			;			
J438	30.91366005	0.0007	ZMC8	;	776_VDL 777_VDL 755_VDL		
J44	30	0.0004	ZMC8	;	1028/9_VDL		
J441	29.36246109			;			
J442	30.2709198	0.0002	ZMC8	;	767_VDL 766_VDL		
J443	29.36246109	0.0002	ZMC8	;	746_VDL		
J444	29.36246109			;			
J445	29.36246109			;			
J446	27.36727905	0.0029	ZMC8	;	597_VDL 596_VDL		
J447	31.18186569			;			
J449	29.82409286	0.0038	ZMC8	;	737_VDL 736_VDL PRVDL077		
J45	27.30817986	0.0051	ZMC8	;	1047_VDL 1049_VDL 1048_VDL		
J450	30.25405884	0.0002	ZMC8	;	731_VDL		
J453	16.25793266	0.0025	ZMC8	;	PRVDL152		
J454	30.96339417			;			
J457	31.27873611	0.0003	ZMC8	;	723_VDL 724_VDL 732_VDL		
J458	31.24366188			;			
J459	31.24366188			;			
J460	31.1644268			;			
J461	29.91093063			;			
J462	45.35529327	0.0000	ZMC8	;	PRVDL001		
J463	29.91093063	0.0004	ZMC8	;	734_VDL		
J464	29.62610245	0.0002	ZMC8	;	735_VDL		
J465	31.20349121	0.0018	ZMC8	;	Casa_Yanina		
J466	44.46354294	0.0050	ZMC8	;	PRVDL003		
J467	31.27577591	0.0001	ZMC8	;	730_VDL 729_VDL		
J468	32.02453232	0.0072	ZMC8	;	632_VDL PRVDL041		
J469	29.62610245	0.0006	ZMC8	;	745_VDL 743_VDL 744_VDL		
J47	17.44466591	0.0019	ZMC7	;	1219_TRF 1220_TRF		
J471	31.91573906	0.0001	ZMC8	;	725_VDL 726_VDL		
J474	30.36779022	0.0037	ZMC8	;	PRVDL090		
J476	21.54170036	0.0084	ZMC8	;	634_VDL 636_VDL		
J478	29.73177147			;			
J479	22.24642754	0.0042	ZMC8	;	635_VDL		
J480	29.65812492	0.0017	ZMC8	;	PRVDL076		
J481	44.01590729	0.0064	ZMC8	;	PRVDL002 Centro_Medico		
J483	29.41138649			;			
J485	22.89529419			;			
J486	30.14488792			;			
J488	28.99471664			;			
J489	35.92713547	0.0021	ZMC8	;	693_VDL 692_VDL		
J491	28.87067795			;			
J493	31.83485794			;			
J494	28.40458679	0.0022	ZMC8	;	13_EL 3_EL 2_EL 1_EL		
J498	34.87201309	0.0014	ZMC8	;	590E_VDL		
J499	28.98143578	0.0048	ZMC8	;	640_VDL 638_VDL 639_VDL PRVDL155		
J5	11.96783924			;			
J500	34.87201309			;			
J501	43.24070358	0.0011	ZMC8	;	Pingo_Doce		
J502	24.68259621	0.0033	ZMC8	;	637A_VDL PRVDL156 645A_VDL PRVDL153 645B_VDL PRVDL157		
J503	31.4584465	0.0042	ZMC8	;	633_VDL 716_VDL 718_VDL		
J504	25.5132637	0.0068	ZMC8	;	651_VDL 635B_VDL 637B_VDL PRVDL154		
J506	34.05460739	0.0005	ZMC8	;	659_VDL		
J509	44.76509094			;			
J510	33.20413589			;			
J512	33.20413589			;			
J513	44.76509094			;			
J514	30.39472771			;			
J516	31.19284248	0.0012	ZMC8	;	714_VDL		
J517	31.19284248	0.0031	ZMC8	;	712_VDL		
J52	27.52822113	0.0044	ZMC8	;	1044_VDL 1050_VDL 1052/52A_VDL 1051_VDL		
J524	45.45477295	0.0037	ZMC8	;	PRVDL190		
J525	26.77222824			;			
J527	27.96021461	0.0057	ZMC8	;	641_VDL 641A/643_VDL 642_VDL 644_VDL		
J528	30	0.0009	ZMC8	;	691_VDL		
J532	30	0.0015	ZMC8	;	660_VDL 661_VDL		
J534	33.65928268			;			
J535	30	0.0032	ZMC8	;	715_VDL 717_VDL		
J537	30	0.0011	ZMC8	;	690_VDL		
J539	32.0692482	0.0041	ZMC8	;	710_VDL 708_VDL		
J54	23.89689255	0.0647	ZMC7	;	1115_VDL 1114_VDL 1113_VDL 1105_VDL 1112_VDL		
J540	30			;			
J541	28.40299225	0.0012	ZMC8	;	719_VDL 721_VDL 722_VDL 720_VDL		
J547	29.38732529	0.0033	ZMC8	;	689_VDL 664_VDL		
J548	32.11993408	0.0021	ZMC8	;	702_VDL 709_VDL		
J55	29.87814713	0.0729	ZMC7	;	1116_VDL 1111_VDL 1117_VDL 1109_VDL 1118_VDL 1110_VDL		
J550	22.63757706	0.0040	ZMC8	;	6_EL		
J553	27.31966209	0.0030	ZMC8	;	688_VDL 687_VDL 686_VDL		
J554	27.18852234			;			
J555	20.35997581	0.0006	ZMC8	;	Sportive_Club 648_VDL		
J556	25.27425766			;			
J558	32.41172028	0.0021	ZMC8	;	665_VDL 662_VDL		
J559	31.06236839	0.0027	ZMC8	;	707_VDL		
J56	29.88191795	0.0196	ZMC7	;	1119_VDL 1120_VDL		
J560	24.01655388	0.0013	ZMC8	;	685_VDL		
J561	25.40490723			;			
J562	25.40490723	0.0008	ZMC8	;	684_VDL		
J564	31.79211617	0.0003	ZMC8	;	713_VDL		
J565	25.40490723			;			
J566	25.40490723			;			
J569	24.56521034	0.0016	ZMC8	;	682_VDL		
J572	31.14696884			;			
J574	34.48734283	0.0010	ZMC8	;	653_VDL 654B_VDL 654/654A_VDL		
J575	20.45374298			;			
J578	33.05410385	0.0050	ZMC8	;	652_VDL 635C_VDL PRVDL045		
J579	21.86744308			;			
J58	31.45354843	0.0452	ZMC7	;	1153_VDL 1149_VDL 1150_VDL 1151_VDL		
J580	22.13969994			;			
J581	22.19292068			;			
J582	23.6176548			;			
J583	23.52877235			;			
J585	34.63055801			;			
J588	34.63055801	0.0034	ZMC8	;	PRVDL046 655_VDL		
J589	26.44375229	0.0004	ZMC8	;	683_VDL		
J590	26.89918327	0.0033	ZMC8	;	667_VDL 666_VDL		
J592	32.86396408			;			
J593	29.9761982	0.0014	ZMC8	;	700_VDL 818/9_VDL		
J594	29.9761982			;			
J595	30			;			
J596	28.41377449	0.0007	ZMC8	;	806_VDL 803_VDL 805_VDL 804_VDL		
J597	34.27579498	0.0032	ZMC8	;	655A_VDL 656_VDL PRVDL047		
J598	32.89719772			;			
J60	19.29816246	0.0017	ZMC7	;	Casa_de_Madeira 1211_TRF		
J601	28.63701057			;			
J602	23.81876755			;			
J603	30			;			
J605	24.46954918	0.0008	ZMC8	;	681_VDL		
J606	30.85876083	0.0019	ZMC8	;	698_VDL 826_VDL		
J608	26.03686905	0.0055	ZMC8	;	680_VDL		
J61	33.81686783	0.0271	ZMC7	;	1123_VDL 1121_VDL 1122_VDL		
J610	26.03686905			;			
J614	29.99799347	0.0007	ZMC8	;	821_VDL 822_VDL 823_VDL		
J616	29.40345573	0.0007	ZMC8	;	814_VDL 820_VDL 817_VDL 813_VDL		
J620	35.23789215	0.0038	ZMC8	;	837_VDL 841_VDL PRVDL048 840_VDL 838_VDL 839_VDL		
J621	32.25168991	0.0042	ZMC8	;	827_VDL 828_VDL 830_VDL 829_VDL		
J622	35.37217712	0.0012	ZMC8	;	836_VDL 832_VDL 835_VDL 833_VDL 834_VDL		
J625	34.1158638	0.0003	ZMC8	;	831_VDL		
J627	29.04603958	0.0001	ZMC8	;	810_VDL		
J63	34.43093109	0.0024	ZMC8	;	1036_VDL 1032_VDL 1027_VDL		
J631	34.33288956			;			
J633	30.67084885	0.0015	ZMC8	;	872_VDL 870_VDL 871_VDL 824_VDL 825_VDL		
J634	29.29213524	0.0001	ZMC8	;	816_VDL		
J635	29.28431511	0.0003	ZMC8	;	811_VDL		
J636	29.28431511	0.0001	ZMC8	;	815_VDL		
J637	34.70724869	0.0032	ZMC8	;	PRVDL051 857_VDL 854_VDL 856_VDL 855_VDL		
J638	35.00435638	0.0034	ZMC8	;	PRVDL049 861_VDL 858_VDL 860_VDL 859_VDL		
J639	29.29213524	0.0001	ZMC8	;	873_VDL		
J64	32.90335083	0.0498	ZMC7	;	1132_VDL 1132A_VDL		
J640	24.69292259	0.0001	ZMC8	;	PRVDL142		
J642	29.29213524	0.0002	ZMC8	;	812_VDL		
J644	24.71474648	0.0008	ZMC8	;	679_VDL		
J645	29.50652313			;			
J646	25.55884171			;			
J649	29.50652313	0.0005	ZMC8	;	807_VDL 808_VDL 809_VDL		
J652	25.54753685			;			
J653	25.54753685			;			
J654	25.54753685	0.0008	ZMC8	;	669_VDL		
J658	34.29513168	0.0005	ZMC8	;	862_VDL 864_VDL 863_VDL		
J659	26.71298409	0.0022	ZMC8	;	671_VDL 678_VDL		
J664	27.19203758	0.0017	ZMC8	;	668_VDL 670_VDL		
J667	35.53837204	0.0039	ZMC8	;	844_VDL 845_VDL PRVDL052 846_VDL		
J668	29.79473114	0.0053	ZMC8	;	890_VDL 889_VDL PRVDL055		
J670	32.81825256	0.0008	ZMC8	;	47_EL 32_EL 46_EL		
J672	35.44145966	0.0094	ZMC8	;	PRVDL053 PRVDL050 853_VDL 847_VDL 852_VDL 848_VDL 851_VDL 849_VDL 850_VDL		
J673	34.06749344	0.0008	ZMC8	;	865_VDL		
J674	31.43339157	0.0007	ZMC8	;	891_VDL		
J68	27.00009537	0.0022	ZMC8	;	1061_VDL 1053_VDL		
J680	30.30965233			;			
J684	33.07984161	0.0011	ZMC8	;	887_VDL 866_VDL 886_VDL 885_VDL		
J687	29.81318855	0.0006	ZMC8	;	888_VDL 920_VDL		
J688	29.59617996	0.0001	ZMC8	;	921_VDL		
J69	20.08122253	0.0038	ZMC7	;	1213_TRF 1214_TRF 1215_TRF		
J690	30.65693474	0.0018	ZMC8	;	869_VDL 881_VDL 867_VDL 884_VDL 882_VDL 868_VDL 883_VDL		
J692	29.08221245	0.0001	ZMC8	;	922_VDL		
J695	31.58722496	0.0003	ZMC8	;	892_VDL		
J697	30.43803596			;			
J7	17.45675468	0.0037	ZMC8	;	1064_VDL 1068_VDL 1065_VDL		
J700	31.58722496	0.0037	ZMC8	;	PRVDL054 893_VDL		
J707	31.36128235			;			
J709	31.36128235	0.0009	ZMC8	;	677_VDL		
J71	27.46300316	0.0467	ZMC7	;	1107_VDL 1100_VDL 1104_VDL 1106_VDL		
J710	29.93412971	0.0021	ZMC8	;	874/5_VDL 876_VDL 877_VDL 878_VDL		
J715	32.78668976	0.0028	ZMC8	;	43_EL 44_EL		
J720	33.3288765	0.0016	ZMC8	;	36_EL 35_EL		
J725	31.91871262			;			
J728	33.03886795	0.0009	ZMC8	;	676_VDL 675_VDL		
J729	30			;			
J73	30.22282219	0.0008	ZMC8	;	1043_VDL		
J731	29.877491			;			
J733	34.76958084	0.0016	ZMC8	;	673_VDL 674_VDL		
J734	30			;			
J74	36.82034302	0.0470	ZMC7	;	1083_VDL 1148_VDL		
J742	29.87639427			;			
J743	29.87639427	0.0008	ZMC8	;	880_VDL 879_VDL 879A_VDL		
J744	37.33456039			;			
J747	29.88175011	0.0002	ZMC8	;	879B_VDL		
J750	38.61039352			;			
J754	30.28689384	0.0011	ZMC8	;	895_VDL 894_VDL		
J756	39.40473175			;			
J762	28.12084198	0.0002	ZMC8	;	897_VDL 896_VDL		
J764	37.12493134	0.0007	ZMC8	;	672_VDL		
J767	40			;			
J77	30.02600288			;			
J771	25.35032082	0.0097	ZMC8	;	919_VDL 918_VDL 899_VDL 898_VDL 923_VDL 924_VDL PRVDL102 927B_VDL 927_VDL PRVDL101 925_VDL 926_VDL		
J772	22.62885857	0.0003	ZMC8	;	932_VDL 933_VDL 934_VDL		
J773	36.72719193			;			
J774	36.72719193			;			
J775	35.70590973	0.0000	ZMC8	;	PRVDL192		
J776	20	0.0004	ZMC8	;	936_VDL 935_VDL		
J777	35.70590973			;			
J778	20			;			
J779	37.05134964			;			
J782	37.05134964			;			
J784	41.58904266			;			
J785	34.07673264	0.0016	ZMC8	;	35B.14_VDLIII		
J787	38.40803146			;			
J791	32.31352615	0.0019	ZMC8	;	37_EL 41_EL 42_EL		
J792	36.72719193			;			
J794	19.89622688	0.0007	ZMC8	;	939_VDL 937_VDL 938_VDL		
J795	23.50076485	0.0020	ZMC8	;	931_VDL 930_VDL 911_VDL 929_VDL 917_VDL 928_VDL 916_VDL 912_VDL 913_VDL 915_VDL 914_VDL		
J798	38.93528748			;			
J799	38.93528748	0.0026	ZMC8	;	35B.33_VDLIII		
J8	14.15393162			;			
J80	9.874103546			;			
J802	35.87461472			;			
J806	34.75032043	0.0016	ZMC8	;	35B.15_VDLIII		
J81	35.30418015	0.0031	ZMC8	;	1037_VDL 1026_VDL		
J810	34.75032043			;			
J812	44.40734863			;			
J815	19.8246994			;			
J816	19.8246994			;			
J82	24.52207184	0.0022	ZMC8	;	PRVDL023 007_VDL 008_VDL		
J820	35.99463272			;			
J825	35.99463272			;			
J827	43.63223267			;			
J83	37.92725372	0.0128	ZMC7	;	1088_VDL		
J831	31.00205803			;			
J834	30.61113167			;			
J836	43.87978363			;			
J838	37.85207367			;			
J84	26.5487957	0.0008	ZMC8	;	012_VDL 011_VDL		
J841	20.36375427	0.0098	ZMC8	;	900_VDL 901_VDL 905/5A_VDL 908_VDL 904_VDL 909_VDL 903_VDL PRVDL096 902_VDL LAGO_FLAMINGOS PRVDL099		
J848	42.21754837	0.0007	ZMC8	;	PRVDL189		
J849	42.21754837			;			