[TITLE]
New Scenario

[JUNCTIONS]
;ID              	Elev        	Demand      	Pattern         
 J10             	9.122993946 	0.06465     	zmc9            	;	PRVDL039 Sandbanks
 4               	17.5971489  	0.06764     	zmc9            	;	389_VDL 404_VDL Lobito_Kids_Club
 J118            	10          	0.01759     	zmc9            	;	498_VDL
 J12             	10.04642296 	0.03427     	zmc9            	;	Creperie Escritorio_Shelsian
 J122            	13.04650235 	0.09213     	zmc9            	;	PRVDL034 383_VDL PRVDL033 499_VDL PRVDL032 403_VDL
 J123            	17.2365729  	0.03827     	zmc9            	;	Mini_Golf 408_VDL 385_VDL
 J125            	9.587048531 	0.01196     	zmc9            	;	Restaurante_Brezze
 J134            	13.95812607 	0.03362     	zmc9            	;	381_VDL 500_VDL 382_VDL
 J144            	19.74464417 	0.06015     	zmc9            	;	PRVDL024 Piscinas
 J148            	13.82086086 	0.02812     	zmc9            	;	384_VDL 386_VDL 448_VDL
 J149            	12.17774852 	0.02657     	zmc9            	;	Restaurante_Amore Chuveiros_Praia 405_VDL
 J150            	7.59198761  	0.00845     	zmc9            	;	425_VDL
 J151            	11.9849205  	0.03547     	zmc9            	;Boutique_Dunas PRVDL019 Teahouse_Oriental 420_VDL PRVDL030
 J152            	12.93898907 	0.02818     	zmc9            	;	Beach_Bar 431_VDL PRVDL020 Rest_Cantina_Lobo 441_VDL
 J153            	13.23242044 	0.01925     	zmc9            	;	PRVDL025 005_VDL 437_VDL 443_VDL
 J154            	9.839156508 	0.01652     	zmc9            	;	391_VDL 428_VDL Gecko 423_VDL
 J157            	15.54122639 	0.01500     	zmc9            	;	445_VDL 422_VDL 440_VDL 53_VDL
 J158            	9.171165466 	0.00692     	zmc9            	;	438_VDL 497_VDL
 J159            	13.78704437 	0.00976     	zmc9            	;	004_VDL 447_VDL 427_VDL
 J162            	11.92046309 	0.00635     	zmc9            	;	434_VDL 001_VDL
 J165            	10.01553679 	0.00626     	zmc9            	;	432_VDL 387_VDL
 J167            	30.08111191 	0.00299     	zmc9            	;	33_VDL
 J168            	16.740002   	0.00765     	zmc9            	;	442_VDL 43_VDL 436_VDL
 J170            	11.42793608 	0.00667     	zmc9            	;	429_VDL 006_VDL 433_VDL
 J171            	17.38246791 	0.00633     	zmc9            	;	439_VDL 8_VDL 003_VDL
 J174            	8.178510666 	0.00207     	zmc9            	;	424_VDL
 J179            	19.59524918 	0.00200     	zmc9            	;	013_VDL
 2               	14.11922646 	0.00200     	zmc9            	;	444_VDL
 J184            	19.33437157 	0.00184     	zmc9            	;	014_VDL
 J196            	18.48161316 	0.00177     	zmc9            	;	016_VDL
 J201            	17.67469156 	0.00638     	zmc9            	;	426_VDL 9_VDL 015_VDL 1_VDL
 J212            	20.4090929  	0.00379     	zmc9            	;	435_VDL 52_VDL 55_VDL
 J223            	19.66323249 	0.00360     	zmc9            	;	407_VDL 421_VDL 56_VDL
 J226            	27.14227867 	0.00117     	zmc9            	;	28_VDL
 J229            	22.52216911 	0.00116     	zmc9            	;	3_VDL
 J230            	18.44443989 	0.00215     	zmc9            	;	002_VDL 406/388_VDL
 J233            	16.32032692 	0.00392     	zmc9            	;	Praca_VDL 24_VDL 12_VDL 430_VDL
 J237            	26.23895359 	0.00184     	zmc9            	;	51_VDL 22_VDL
 J239            	27.45221329 	0.00089     	zmc9            	;	36_VDL
 J245            	28.71557935 	0.00267     	zmc9            	;	47_VDL 48_VDL 39_VDL
 J246            	21.07851487 	0.00618     	zmc9            	;	PLATAFORMA_PRAIA 446_VDL 40_VDL 7_VDL 10_VDL 2_VDL 11A_VDL 38_VDL
 J247            	24.25151443 	0.00070     	zmc9            	;	14_VDL
 J248            	25.16278791 	0.00270     	zmc9            	;	27_VDL 17_VDL 18_VDL 6_VDL
 J39             	26.89530563 	0.00120     	zmc9            	;	5_VDL 32_VDL
 J4              	27.77648687 	0.05292     	zmc9            	;	50_VDL 34_VDL 41_VDL 11B_VDL
 J44             	29.02462769 	0.00158     	zmc9            	;	31_VDL 49_VDL 54_VDL 20_VDL
 J51             	26.33238093 	0.00181     	zmc9            	;	21_VDL 37_VDL 15_VDL 66_VDL 19_VDL 35_VDL
 J8              	25.92665164 	0.00050     	zmc9            	;	23_VDL 16_VDL 29_VDL
 J81             	26.34639549 	0.00024     	zmc9            	;	30_VDL 25_VDL
 J96             	20.0148627  	0.00008     	zmc9            	;	57_VDL 26_VDL PRVDL009 PRVDL022 PRVDL027 PRVDL028
 J161            	0           	0           	                	;	
 J163            	0           	0           	                	;	
 J164            	0           	0           	                	;	
 J166            	0           	0           	                	;	
 3               	0           	0           	                	;	
 J176            	0           	0           	                	;	
 J177            	0           	0           	                	;	
 J178            	0           	0           	                	;	
 J180            	0           	0           	                	;	
 J181            	0           	0           	                	;	
 J185            	0           	0           	                	;	
 J186            	0           	0           	                	;	
 J187            	0           	0           	                	;	
 J188            	0           	0           	                	;	
 1               	0           	0           	                	;	
 J190            	0           	0           	                	;	
 J191            	0           	0           	                	;	
 J192            	0           	0           	                	;	
 J194            	0           	0           	                	;	
 J197            	30.22       	0.233537    	zmc9            	;	Hotel_D._Filipa
 J199            	0           	0           	                	;	
 J200            	0           	0           	                	;	
 J202            	0           	0           	                	;	
 J203            	0           	0           	                	;	
 J205            	0           	0           	                	;	
 J206            	0           	0           	                	;	
 J207            	0           	0           	                	;	
 J209            	0           	0           	                	;	
 J210            	0           	0           	                	;	
 J211            	0           	0           	                	;	
 J213            	0           	0           	                	;	
 J214            	0           	0           	                	;	
 J215            	0           	0           	                	;	
 J216            	0           	0           	                	;	
 J217            	0           	0           	                	;	
 J218            	0           	0           	                	;	
 J219            	0           	0           	                	;	
 J221            	0           	0           	                	;	
 J222            	0           	0           	                	;	
 J224            	0           	0           	                	;	
 J225            	0           	0           	                	;	
 J227            	0           	0           	                	;	
 J228            	0           	0           	                	;	
 J232            	0           	0           	                	;	
 J234            	0           	0           	                	;	
 J235            	0           	0           	                	;	
 J236            	0           	0           	                	;	
 J238            	0           	0           	                	;	
 J240            	0           	0           	                	;	
 J241            	0           	0           	                	;	
 J242            	0           	0           	                	;	
 J243            	0           	0           	                	;	
 J244            	0           	0           	                	;

[RESERVOIRS]
;ID              	Head        	Pattern         
 5               	64.613      	                	;

[TANKS]
;ID              	Elevation   	InitLevel   	MinLevel    	MaxLevel    	Diameter    	MinVol      	VolCurve        	Overflow

[PIPES]
;ID              	Node1           	Node2           	Length      	Diameter    	Roughness   	MinorLoss   	Status
 P1              	J221            	J241            	64.77       	200         	140         	0           	OPEN  	;
 P10             	J51             	J44             	44.746      	110         	140         	0           	OPEN  	;
 P11_ND1         	J185            	J186            	100.076     	200         	140         	0           	OPEN  	;
 P11_ND2         	J186            	1               	3.375       	200         	140         	0           	OPEN  	;
 P11_ND4         	1               	J190            	1.965       	200         	140         	0           	OPEN  	;
 P12             	J206            	J213            	89.107      	200         	140         	0           	OPEN  	;
 P13             	J248            	J244            	281.505     	90          	140         	0           	OPEN  	;
 P14             	J218            	J209            	284.237     	200         	140         	0           	OPEN  	;
 P15             	J209            	J221            	158.423     	200         	140         	0           	OPEN  	;
 P16             	J219            	J210            	283.64      	200         	140         	0           	OPEN  	;
 P17             	J205            	J211            	89.246      	200         	140         	0           	OPEN  	;
 P18             	J210            	J217            	109.878     	200         	140         	0           	OPEN  	;
 P19             	J216            	J219            	25.76       	200         	140         	0           	OPEN  	;
 P2_ND1          	J243            	J207            	389.058     	200         	140         	0           	OPEN  	;
 P2_ND2          	J207            	J202            	64.847      	200         	140         	0           	OPEN  	;
 P20             	J241            	J224            	49.579      	200         	140         	0           	OPEN  	;
 P22             	J247            	J248            	9.135       	90          	140         	0           	OPEN  	;
 P23             	J223            	J227            	35.075      	110         	140         	0           	OPEN  	;
 P24             	J225            	J223            	7.337       	110         	140         	0           	OPEN  	;
 P25             	J211            	J215            	5.904       	200         	140         	0           	OPEN  	;
 P26             	J213            	J214            	4.337       	200         	140         	0           	OPEN  	;
 P27             	J215            	J218            	25.423      	200         	140         	0           	OPEN  	;
 P28             	J174            	J178            	18.608      	50          	140         	0           	OPEN  	;
 P29_ND1         	J180            	2               	15.319      	110         	140         	0           	OPEN  	;
 P29_ND2         	2               	J181            	20.858      	110         	140         	0           	OPEN  	;
 P3              	J171            	J179            	33.71       	50          	140         	0           	OPEN  	;
 P30             	J217            	J222            	47.114      	200         	140         	0           	OPEN  	;
 P31             	J192            	J188            	2.461       	200         	140         	0           	OPEN  	;
 P32             	J191            	J186            	2.454       	200         	140         	0           	OPEN  	;
 P33             	J230            	J238            	8.529       	110         	140         	0           	OPEN  	;
 P34             	J230            	J229            	23.078      	50          	140         	0           	OPEN  	;
 P35             	J237            	J39             	20.379      	63          	140         	0           	OPEN  	;
 P36_ND1         	J232            	J233            	2.815       	110         	140         	0           	OPEN  	;
 P36_ND2         	J233            	J246            	194.173     	110         	140         	0           	OPEN  	;
 P36_ND4         	J246            	J248            	128.296     	110         	140         	0           	OPEN  	;
 P37             	J246            	J245            	83.774      	63          	140         	0           	OPEN  	;
 P38             	J223            	J8              	23.224      	110         	140         	0           	OPEN  	;
 P39             	J237            	J239            	10.577      	63          	140         	0           	OPEN  	;
 P4_ND1          	J177            	J180            	18.702      	140         	140         	0           	OPEN  	;
 P4_ND2          	J180            	1               	19.251      	140         	140         	0           	OPEN  	;
 P40             	J214            	J216            	1.346       	200         	140         	0           	OPEN  	;
 P41             	J194            	J190            	49.015      	200         	140         	0           	OPEN  	;
 P42             	J187            	J185            	15.301      	200         	140         	0           	OPEN  	;
 P43_ND1         	J200            	J201            	0.783       	90          	140         	0           	OPEN  	;
 P43_ND2         	J201            	J122            	78.242      	90          	140         	0           	OPEN  	;
 P44_ND1         	2               	J170            	44.119      	110         	140         	0           	OPEN  	;
 P44_ND2         	J165            	J152            	47.798      	110         	140         	0           	OPEN  	;
 P44_ND3         	J170            	J165            	11.478      	110         	140         	0           	OPEN  	;
 P45             	J165            	J163            	20.639      	110         	140         	0           	OPEN  	;
 P46             	J152            	J157            	18.908      	110         	140         	0           	OPEN  	;
 P47_ND1         	J159            	J161            	21.692      	110         	140         	0           	OPEN  	;
 P47_ND2         	J161            	J162            	14.188      	110         	140         	0           	OPEN  	;
 P47_ND4         	J162            	J166            	14.177      	110         	140         	0           	OPEN  	;
 P47_ND6         	J166            	J168            	21.74       	110         	140         	0           	OPEN  	;
 P48             	J157            	J166            	27.709      	63          	140         	0           	OPEN  	;
 P49             	J152            	J168            	38.302      	63          	140         	0           	OPEN  	;
 P5              	J207            	J233            	88.659      	90          	140         	0           	OPEN  	;
 P50             	J168            	J170            	21.701      	110         	140         	0           	OPEN  	;
 P51_ND1         	J162            	3               	21.672      	63          	140         	0           	OPEN  	;
 P51_ND2         	3               	J81             	7.44        	63          	140         	0           	OPEN  	;
 P52             	J179            	J181            	7.725       	50          	140         	0           	OPEN  	;
 P53             	3               	J174            	5.123       	50          	140         	0           	OPEN  	;
 P54             	J153            	J161            	20.595      	63          	0           	0           	OPEN  	;
 P55             	J151            	J149            	22.065      	110         	0           	0           	OPEN  	;
 P56_ND1         	J150            	J149            	12.051      	63          	0           	0           	OPEN  	;
 P56_ND2         	J149            	J96             	26.212      	63          	0           	0           	OPEN  	;
 P57_ND1         	J157            	J151            	42.254      	110         	0           	0           	OPEN  	;
 P57_ND2         	J151            	J159            	17.374      	110         	0           	0           	OPEN  	;
 P58_ND1         	J159            	J158            	33.279      	110         	0           	0           	OPEN  	;
 P58_ND2         	J148            	4               	36.099      	110         	0           	0           	OPEN  	;
 P58_ND3         	J154            	J148            	30.456      	110         	0           	0           	OPEN  	;
 P58_ND3_OH54    	J158            	J118            	17.894      	110         	0           	0           	OPEN  	;
 P58_ND4         	4               	J167            	33.661      	110         	0           	0           	OPEN  	;
 P58_ND5         	J118            	J154            	19.238      	110         	0           	0           	OPEN  	;
 P59             	J158            	J150            	20.693      	63          	0           	0           	OPEN  	;
 P6_ND1          	J199            	J196            	26.826      	200         	140         	0           	OPEN  	;
 P6_ND2          	J196            	J192            	58.508      	200         	140         	0           	OPEN  	;
 P60             	J118            	J164            	15.074      	63          	0           	0           	OPEN  	;
 P61             	J148            	J10             	20.242      	63          	0           	0           	OPEN  	;
 P62             	4               	J144            	4.58        	110         	0           	0           	OPEN  	;
 P63             	J12             	J154            	36.563      	63          	0           	0           	OPEN  	;
 P64             	J184            	J125            	5.553       	80          	140         	0           	OPEN  	;
 P65             	J167            	J176            	28.817      	110         	140         	0           	OPEN  	;
 P66             	J176            	J4              	23.898      	63          	140         	0           	OPEN  	;
 P67             	J4              	J134            	44.573      	50          	140         	0           	OPEN  	;
 P68             	J201            	J123            	45.615      	50          	140         	0           	OPEN  	;
 P69             	J196            	J197            	14.437      	110         	140         	0           	OPEN  	;
 P7              	J202            	J191            	52.756      	200         	140         	0           	OPEN  	;
 P70             	5               	J203            	33.368      	200         	140         	0           	OPEN  	;
 P71             	J203            	J206            	0.719       	200         	140         	0           	OPEN  	;
 P72             	J203            	J205            	0.482       	200         	140         	0           	OPEN  	;
 P73             	J222            	J243            	103.424     	200         	140         	0           	OPEN  	;
 P74             	J224            	J199            	451.55      	200         	140         	0           	OPEN  	;
 P75             	J239            	J240            	8.529       	110         	140         	0           	OPEN  	;
 P76             	J240            	J242            	237.445     	200         	140         	0           	OPEN  	;
 P77             	J212            	J234            	237.445     	200         	140         	0           	OPEN  	;
 P78             	J238            	J240            	237.445     	200         	140         	0           	OPEN  	;
 P79             	J226            	J51             	76.012      	110         	140         	0           	OPEN  	;
 P8_ND1          	J187            	J184            	80.416      	175         	140         	0           	OPEN  	;
 P8_ND2          	J184            	J200            	118.105     	175         	140         	0           	OPEN  	;
 P8_ND4          	J200            	J212            	75.98       	175         	140         	0           	OPEN  	;
 P80             	J228            	J227            	76.012      	110         	140         	0           	OPEN  	;
 P81             	J234            	J235            	237.445     	200         	140         	0           	OPEN  	;
 P82             	J235            	J236            	237.445     	200         	140         	0           	OPEN  	;
 P83             	J236            	J238            	237.445     	200         	140         	0           	OPEN  	;
 P84             	J227            	J226            	76.012      	110         	140         	0           	OPEN  	;
 P85             	J236            	J228            	76.012      	110         	140         	0           	OPEN  	;

[PUMPS]
;ID              	Node1           	Node2           	Parameters

[VALVES]
;ID              	Node1           	Node2           	Diameter    	Type	Setting     	MinorLoss   

[TAGS]

[DEMANDS]
;Junction        	Demand      	Pattern         	Category

[STATUS]
;ID              	Status/Setting

[PATTERNS]
;ID              	Multipliers
;
 zmc9            	21          	22          	35          	39          	31          	33          
 zmc9            	30          	24          	25          	29          	20          	17          
 zmc9            	12          	16          	13          	15          	14          	16          
 zmc9            	17          	17          	20          	17          	19          	24          

[CURVES]
;ID              	X-Value     	Y-Value

[CONTROLS]





[RULES]





[ENERGY]
 Global Efficiency  	75
 Global Price       	0
 Demand Charge      	0

[EMITTERS]
;Junction        	Coefficient

[QUALITY]
;Node            	InitQual

[SOURCES]
;Node            	Type        	Quality     	Pattern

[REACTIONS]
;Type     	Pipe/Tank       	Coefficient


[REACTIONS]
 Order Bulk            	0
 Order Tank            	0
 Order Wall            	0
 Global Bulk           	0
 Global Wall           	0
 Limiting Potential    	0
 Roughness Correlation 	0

[MIXING]
;Tank            	Model

[TIMES]
 Duration           	168:00
 Hydraulic Timestep 	0:15
 Quality Timestep   	0:01
 Pattern Timestep   	1:00 
 Pattern Start      	0:00 
 Report Timestep    	1:00 
 Report Start       	0:00 
 Start ClockTime    	00:00 AM
 Statistic          	None

[REPORT]
 Status             	No
 Summary            	No
 Page               	0

[OPTIONS]
 Units              	CMH
 Headloss           	D-W
 Specific Gravity   	1
 Viscosity          	1
 Trials             	40
 Accuracy           	0.001
 CHECKFREQ          	2
 MAXCHECK           	10
 DAMPLIMIT          	0
 Unbalanced         	Continue 10
 Pattern            	zmc9
 Demand Multiplier  	1.0
 Emitter Exponent   	0.5
 Quality            	Trace 5
 Diffusivity        	1
 Tolerance          	0.01

[COORDINATES]
;Node            	X-Coord           	Y-Coord
J10             	5933.155          	-290659.700       
4               	5976.752          	-290679.125       
J118            	5991.262          	-290626.001       
J12             	5945.571          	-290620.003       
J122            	6069.029          	-290765.233       
J123            	6081.239          	-290730.965       
J125            	6055.957          	-290653.729       
J134            	6015.564          	-290777.142       
J144            	5975.345          	-290683.344       
J148            	5952.950          	-290655.491       
J149            	5956.534          	-290593.434       
J150            	5964.080          	-290600.786       
J151            	5968.453          	-290575.484       
J152            	5970.891          	-290519.162       
J153            	5971.846          	-290562.072       
J154            	5973.771          	-290634.009       
J157            	5976.858          	-290536.210       
J158            	5982.344          	-290610.488       
J159            	5985.652          	-290577.948       
J162            	5993.148          	-290548.183       
J165            	6000.737          	-290501.972       
J167            	6008.189          	-290690.865       
J168            	6009.151          	-290520.758       
J170            	6011.675          	-290499.329       
J171            	6013.073          	-290513.774       
J174            	6017.597          	-290546.071       
J179            	6044.412          	-290503.988       
2               	6049.985          	-290477.513       
J184            	6061.486          	-290653.204       
J196            	6100.209          	-290501.786       
J201            	6118.444          	-290720.696       
J212            	6192.170          	-290712.738       
J223            	6226.013          	-290776.234       
J226            	6234.668          	-290809.971       
J229            	6236.953          	-290821.466       
J230            	6239.111          	-290844.413       
J233            	6242.527          	-290424.394       
J237            	6246.357          	-290871.114       
J239            	6249.930          	-290881.068       
J245            	6310.505          	-290611.884       
J246            	6345.797          	-290584.140       
J247            	6453.665          	-290523.364       
J248            	6460.005          	-290529.940       
J39             	6240.514          	-290851.611       
J4              	6022.651          	-290733.120       
J44             	6143.948          	-290773.842       
J51             	6168.751          	-290810.922       
J8              	6218.324          	-290754.322       
J81             	6011.569          	-290556.460       
J96             	5933.691          	-290606.014       
J161            	5992.438          	-290562.353       
J163            	5993.988          	-290482.497       
J164            	5994.313          	-290611.240       
J166            	6003.747          	-290541.481       
3               	6014.281          	-290549.979       
J176            	6027.607          	-290709.758       
J177            	6029.128          	-290460.178       
J178            	6029.437          	-290531.741       
J180            	6047.656          	-290462.724       
J181            	6048.207          	-290497.335       
J185            	6064.831          	-290568.631       
J186            	6066.339          	-290468.700       
J187            	6066.402          	-290583.852       
J188            	6066.550          	-290466.530       
1               	6066.685          	-290465.343       
J190            	6066.848          	-290463.385       
J191            	6068.792          	-290468.646       
J192            	6069.011          	-290466.494       
J194            	6075.638          	-290415.363       
J197            	6113.188          	-290508.111       
J199            	6116.775          	-290481.894       
J200            	6118.062          	-290720.012       
J202            	6118.859          	-290485.275       
J203            	6143.894          	-289480.702       
J205            	6144.149          	-289481.111       
J206            	6144.609          	-289480.777       
J207            	6155.155          	-290431.852       
J209            	6178.341          	-289838.297       
J210            	6180.194          	-289837.504       
J211            	6191.453          	-289556.789       
J213            	6192.498          	-289555.686       
J214            	6193.970          	-289558.758       
J215            	6194.258          	-289559.435       
J216            	6195.111          	-289558.135       
J217            	6199.502          	-289945.434       
J218            	6217.068          	-289570.632       
J219            	6218.114          	-289569.731       
J221            	6223.767          	-289986.534       
J222            	6224.401          	-289984.892       
J224            	6228.886          	-290074.520       
J225            	6232.996          	-290773.984       
J227            	6234.961          	-290809.963       
J228            	6235.143          	-290809.902       
J232            	6242.014          	-290421.626       
J234            	6244.041          	-290805.696       
J235            	6244.118          	-290805.973       
J236            	6244.249          	-290806.836       
J238            	6247.552          	-290843.187       
J240            	6258.678          	-290879.918       
J241            	6262.451          	-290038.471       
J242            	6277.531          	-290926.326       
J243            	6282.042          	-290070.439       
J244            	6309.832          	-290716.280       
5               	6112.094          	-289472.792       

[VERTICES]
;Link            	X-Coord           	Y-Coord
P1              	6259.217          	-290033.584       
P10             	6157.684          	-290797.425       
P10             	6151.119          	-290785.990       
P11_ND1         	6064.254          	-290550.726       
P11_ND1         	6063.319          	-290528.736       
P11_ND1         	6063.735          	-290503.218       
P11_ND1         	6064.892          	-290481.971       
P11_ND1         	6065.718          	-290475.144       
P11_ND1         	6065.940          	-290473.017       
P11_ND1         	6066.158          	-290470.156       
P11_ND2         	6066.433          	-290467.949       
P11_ND4         	6066.744          	-290464.734       
P12             	6145.132          	-289480.833       
P13             	6470.959          	-290541.738       
P13             	6481.069          	-290556.682       
P13             	6481.545          	-290565.096       
P13             	6482.339          	-290572.239       
P13             	6475.774          	-290584.504       
P13             	6475.368          	-290584.830       
P13             	6453.444          	-290602.402       
P13             	6427.567          	-290620.337       
P13             	6381.680          	-290644.987       
P13             	6380.178          	-290645.926       
P13             	6316.182          	-290692.202       